Resultados_ano2/LineSummary.csv
line,maxCurrentA,normAmps,maxLoadingPct,meanLoadingPct,overloadHours
rbt_1607347,93.11814003287708,124.95,74.52432175500367,25.728406795097243,0
sbt_7584,93.11815014324057,163.8,56.84868751113588,19.626158055797973,0
sbt_22840,93.11814551302417,163.8,56.848684684385944,19.62615797974519,0
rbt_630758,31.216442707015,76.65,40.72595265103065,17.430615731899834,0
rbt_637576,24.790262861516428,61.95,40.01656636241554,14.612005755037766,0
rbt_632607,44.940582402636565,124.95,35.96685266317452,16.929742593620553,0
rbt_606147,25.457870616306284,76.65,33.213138442669646,12.358055255683828,0
rbt_1130761,27.905187034323532,90.3,30.902754190834475,14.54302250970872,0
rbt_637918,17.777147492100507,61.95,28.695960439226,11.278653266832357,0
rbt_605836,23.688425953115257,90.3,26.23302984841114,12.354954833406723,0
rbt_637360,16.192775275585028,61.95,26.138458879071873,12.28036246844097,0
rbt_1607350,22.032810001233067,90.3,24.399568107677815,8.766681418727753,0
rbt_626476,13.993904881753076,61.95,22.5890312861228,10.628014146245667,0
rbt_606126,13.575506865048139,61.95,21.91365111387916,7.79205882626989,0
rbt_1633671,13.228821701289858,61.95,21.35403018771567,10.055602944500839,0
rbt_3405844,18.966866461180523,90.3,21.004281795327266,7.240425593793186,0
rbt_606143,14.885089113296617,76.65,19.419555268488736,6.866134398486373,0
rbt_1627323,13.772989922677313,76.65,17.96867569820915,8.453735056018461,0
sbt_34378,22.611772723238435,128.1,17.651657082933987,8.661008400374373,0
sbt_34379,22.541181035306796,128.1,17.596550378849958,8.536673842389085,0
rbt_635862,10.7882673837306,61.95,17.41447519569104,5.97468868540222,0
rbt_3435739,13.327731792285334,76.65,17.387777941663842,8.201435462791133,0
rbt_637397,10.741173414529142,61.95,17.338455874946153,8.149196674364097,0
rbt_605816,10.231699874053762,61.95,16.516061136487103,6.214276639624134,0
sbt_24791,25.457891923111344,163.8,15.542058561118036,5.782936751522975,0
sbt_3174,25.457883045125744,163.8,15.542053141102407,5.782938368458459,0
rbt_609688,11.216330845555653,76.65,14.633177880698828,5.328201930549918,0
smt_29422,23.64743962803181,163.8,14.43677632968975,8.791891402546808,0
smt_19119,23.646535957806908,163.8,14.436224638465756,8.792374176863051,0
smt_17184,23.645392579575816,163.8,14.43552660535764,8.79190806767657,0
rbt_1638954,7.865133818591944,61.95,12.695938367380055,5.96771744010109,0
rbt_1607265,11.051139477008416,90.3,12.23824969768374,5.7594795298233725,0
rbt_606139,9.340419501523531,76.65,12.185804959587124,4.3623190289241895,0
rbt_623004,7.277481033232147,61.95,11.747346300616861,4.576251780907733,0
sbt_11363,18.116126280034628,163.8,11.059906153867294,4.122598317893723,0
sbt_9361,23.68842601371701,216.3,10.951653265703657,5.157893735970505,0
rbt_606121,6.3829558700809885,61.95,10.30339930602258,4.841120060050716,0
rbt_1605991,6.104655639200555,61.95,9.854165680711144,4.632846885975444,0
rbt_1607280,6.055836904311456,61.95,9.775362234562479,4.594039577211677,0
sbt_34393,12.184880880202604,128.1,9.51200693224247,6.253482331022114,0
rbt_635543,5.820729144508901,61.95,9.395850112201614,3.7317094393192742,0
rbt_606114,8.279912630181288,90.3,9.169338460887362,4.309993457209566,0
rbt_627337,8.060102572138264,90.3,8.925916469699075,4.19730378550599,0
rbt_1621994,7.906333326843109,90.3,8.755629376348958,4.114608658313698,0
rbt_626678,7.725646337150053,90.3,8.555533042248122,4.0235286377215855,0
rbt_606150,5.257380379292484,61.95,8.486489716372049,3.9868328488481097,0
rbt_1607272,7.5683047924336435,90.3,8.381289914101488,3.9435468290459905,0
rbt_623007,5.17073210816568,61.95,8.346621643528135,3.9216697224868593,0
sbt_22748,17.902086890010818,216.3,8.276508039764593,3.8943584967164853,0
sbt_7427,17.90207868306836,216.3,8.276504245523975,3.894354576685197,0
sbt_34383,10.590299150648582,128.1,8.2672124517163,4.8699717024954525,0
sbt_34392,10.590296011622556,128.1,8.267210001266632,5.182933357844932,0
sbt_34384,10.576627986045338,128.1,8.256540192072864,3.9882133247343603,0
smt_34713,23.632725268486507,286.65,8.244453259545267,5.021016780169506,0
smt_34700,23.632576741788977,286.65,8.244401444894114,5.020982636385002,0
smt_34701,23.63222491170166,286.65,8.244278706332343,5.020901776694136,0
smt_34715,23.631924047649704,286.65,8.24417374765383,5.020832652845239,0
smt_34702,23.631626053931004,286.65,8.24406979031258,5.020764208920021,0
smt_34703,23.631217870079837,286.65,8.243927392318103,5.020670489303933,0
smt_34704,23.630727169625516,286.65,8.243756207788424,5.0205578743584205,0
smt_34716,23.630420481486222,286.65,8.243649217333411,5.020487517945937,0
smt_34705,23.630112130886566,286.65,8.243541646916647,5.020416801916206,0
smt_34717,23.62974470575305,286.65,8.243413467906176,5.0203325664352,0
smt_34706,23.62937269190012,286.65,8.243283688086558,5.020247310475114,0
smt_34707,23.62893467778695,286.65,8.243130883581703,5.020146969663553,0
smt_34708,23.628526579689737,286.65,8.242988515503136,5.0200535216468465,0
smt_34709,23.627999933239998,286.65,8.24280479094366,5.019932984369185,0
smt_34718,23.6277065547091,286.65,8.242702443645248,5.019865864336498,0
smt_34710,23.62741965407335,286.65,8.242602356209089,5.01980024545957,0
smt_34719,23.627119588284025,286.65,8.242497676010476,5.019731635682308,0
smt_34711,23.62682049239172,286.65,8.242393334167703,5.019663268247975,0
smt_34720,23.626479470569063,286.65,8.242274366150031,5.019585342389816,0
smt_34712,23.626164863137383,286.65,8.24216461299054,5.01951347603269,0
smt_34721,23.625939118035742,286.65,8.242085860120616,5.0194619224757195,0
smt_34714,23.625929832654105,286.65,8.242082620845668,5.019459802747374,0
rbt_1630759,6.258704591687819,76.65,8.165302794113266,3.8407986720081397,0
rbt_606122,5.054199528394389,61.95,8.15851417012815,3.8347202575811927,0
rbt_1229546,7.33666768300116,90.3,8.124770413068836,3.8209149493017787,0
rbt_1638606,5.004860470102071,61.95,8.078870815338291,3.7986307573457885,0
rbt_605905,7.160225566797276,90.3,7.929374935545157,3.7275097518725038,0
rbt_1607283,7.089038466357929,90.3,7.850540937273454,3.6931050940286347,0
smt_31417,25.249107284164303,327.6,7.707297705788858,4.716958648306053,0
smt_31416,25.249060854534843,327.6,7.707283533130294,4.716949306600481,0
smt_31411,25.24904316358104,327.6,7.707278132961244,4.716945746808864,0
smt_31412,25.249023141968475,327.6,7.707272021357898,4.716941718426173,0
smt_31413,25.248904422257507,327.6,7.707235782129886,4.716917833647522,0
smt_31414,25.248815206828418,327.6,7.707208549092923,4.716899886384397,0
smt_31415,25.248589144165674,327.6,7.7071395433961145,4.716854416229624,0
smt_4387,25.248217387348912,327.6,7.707026064514319,4.716779661269079,0
smt_4863,25.24778844646633,327.6,7.706895130178977,4.716693438461715,0
smt_4693,25.247428592943653,327.6,7.706785284781334,4.7166211287501065,0
smt_4591,25.247099735076112,327.6,7.706684900816883,4.716555067814816,0
smt_17964,25.247075106169362,327.6,7.706677382835581,4.708202487346376,0
smt_4627,25.246750742169976,327.6,7.706578370625755,4.716484983539773,0
smt_6826,25.246627631253542,327.6,7.7065407909809345,4.708111720887448,0
smt_4527,25.246471598776687,327.6,7.706493162019745,4.716428942179613,0
smt_7012,25.2461111037841,327.6,7.706383120813216,4.708006992797639,0
smt_23134,25.246017811660426,327.6,7.706354643363989,4.716337869053953,0
smt_22791,25.24564824841854,327.6,7.7062418340715935,4.707913188029209,0
smt_18545,25.245610948520582,327.6,7.706230448266356,4.716256244981717,0
smt_10381,25.245179895975852,327.6,7.706098869345497,4.716169800722253,0
smt_7020,25.245107939744223,327.6,7.706076904683829,4.707803735201325,0
smt_18806,25.24496213980317,327.6,7.706032399207316,4.716126144094089,0
smt_24122,25.24489127119552,327.6,7.706010766543199,4.716111938119891,0
smt_6842,25.24469219702952,327.6,7.705949999093259,4.707719552268332,0
smt_6830,25.244061505042435,327.6,7.705757480171684,4.707591904437475,0
smt_29390,25.243359219428477,327.6,7.705543107273649,4.707363436307829,0
smt_31407,25.243302961516463,327.6,7.7055259345288345,4.707438475718657,0
smt_31408,25.242838422937947,327.6,7.705384133985942,4.715487638223965,0
smt_17776,25.242748968057494,327.6,7.705356827856377,4.7072387840364085,0
smt_10747,25.242127982879726,327.6,7.705167271941307,4.707112008415889,0
smt_18202,25.24158872365175,327.6,7.705002662897359,4.7070019739719475,0
smt_17794,25.241088320034134,327.6,7.7048499145403335,4.706899914987804,0
smt_29420,25.240779128210857,327.6,7.7047555336418965,4.706836876934841,0
smt_22739,25.240598436774537,327.6,7.704700377525804,4.706800045538939,0
smt_17795,25.240002656178465,327.6,7.704518515316991,4.706678645979683,0
smt_29389,25.239338001542393,327.6,7.7043156292864445,4.706543288066957,0
smt_19163,25.23876529016298,327.6,7.704140808963059,4.706426718619607,0
smt_17961,25.238400278982628,327.6,7.704029389188835,4.70635245534909,0
smt_29388,25.23797930645964,327.6,7.703900887197691,4.706266836418029,0
smt_17962,25.237461915285685,327.6,7.703742953383909,4.706161651380533,0
rbt_1107340,6.787553313604619,90.3,7.51667033621774,3.5371663576784513,0
rbt_605822,6.786912988930325,90.3,7.515961228051301,3.536983063358179,0
rbt_1626486,6.7849945418515345,90.3,7.513836701939685,3.5308964197496002,0
rbt_1607287,6.780386001488848,90.3,7.508733113498171,3.531868145477216,0
rbt_606132,4.5343959628808355,61.95,7.319444653560671,3.43904047099575,0
rbt_623433,6.566355853579954,90.3,7.271711908726417,3.42134040074167,0
smt_6447,23.704324173286018,327.6,7.235752189647745,4.408805775906067,0
smt_6627,23.703945081385513,327.6,7.235636471729399,4.4087309797105965,0
smt_24630,23.70334071778448,327.6,7.235451989555703,4.408611795922082,0
smt_24629,23.702967809443972,327.6,7.235338159170931,4.408538292748835,0
smt_24628,23.70247063697848,327.6,7.235186397124077,4.408440339367222,0
smt_24627,23.702101521847588,327.6,7.235073724617701,4.408367647912988,0
smt_6957,23.70175622783769,327.6,7.234968323515778,4.408299672246572,0
smt_6431,23.70132650678338,327.6,7.234837151032777,4.4082151093129545,0
smt_24626,23.700968895893446,327.6,7.234727990199465,4.4081447647122465,0
smt_12228,23.70058007774199,327.6,7.234609303340045,4.408068310422762,0
rbt_626698,6.521565995405516,90.3,7.2221107368831845,3.3943992726038297,0
smt_6510,23.65453796102217,327.6,7.22055493315695,4.397352798117725,0
smt_19223,23.65401344153363,327.6,7.2203948234229625,4.397248477140491,0
smt_22843,23.65356698557692,327.6,7.2202585426058965,4.3971597256145305,0
smt_6737,23.65317757900194,327.6,7.220139676130017,4.397082347649068,0
smt_24665,23.65267014553851,327.6,7.219984781910411,4.396981562503647,0
smt_24635,23.65214592393949,327.6,7.219824763107292,4.3968774971800135,0
smt_24637,23.651603498464603,327.6,7.219659187565506,4.396769876195521,0
smt_24636,23.65107305794538,327.6,7.219497270435096,4.396664690185918,0
smt_19174,23.650590110225004,327.6,7.219349850496032,4.396568971071917,0
smt_6686,23.650020382616503,327.6,7.219175940969628,4.396456112548013,0
smt_19173,23.6490623340885,327.6,7.21888349636401,4.396266477583567,0
smt_19172,23.648738602072427,327.6,7.218784677067284,4.396202440078057,0
smt_6544,23.64838535476931,327.6,7.218676848220179,4.396132588159682,0
smt_6535,23.64786322957904,327.6,7.21851746934647,4.396029387787865,0
smt_24634,23.646721853447158,327.6,7.218169063933809,4.395803979651833,0
smt_24633,23.646314556379977,327.6,7.218044736379723,4.395723606188182,0
smt_24511,23.64602352062591,327.6,7.217955897626956,4.39608260597649,0
smt_24632,23.64587641962054,327.6,7.217910995000164,4.395637184189508,0
smt_1873,23.645445202026234,327.6,7.217779365697874,4.395552164604728,0
smt_29446,23.64537879703038,327.6,7.217759095552618,4.395951226342754,0
smt_24631,23.64505881149042,327.6,7.217661419868869,4.395476014928622,0
smt_32671,23.64495359646383,327.6,7.217629302949886,4.395864626238529,0
smt_6527,23.644657388027206,327.6,7.21753888523419,4.395396934284318,0
smt_6389,23.644484243498447,327.6,7.217486032813933,4.3957690761461965,0
smt_24510,23.644469829539435,327.6,7.217481632948545,4.395766142183707,0
smt_24509,23.643970822393857,327.6,7.217329310865035,4.39566460512571,0
smt_24508,23.64353341423594,327.6,7.217195791891312,4.395575643364842,0
smt_6426,23.64313910091637,327.6,7.2170754276301485,4.395495479424786,0
smt_6420,23.642737084582215,327.6,7.216952712021432,4.3954137817151775,0
smt_6140,23.642302670244057,327.6,7.216820106912104,4.395325536669407,0
smt_6653,23.64188831460268,327.6,7.216693624726092,4.39524140169439,0
smt_6650,23.641480039353574,327.6,7.2165689985816766,4.3951585351538265,0
smt_29445,23.641079549721905,327.6,7.21644674899936,4.395077281473072,0
smt_24507,23.640667556702848,327.6,7.216320988004532,4.394993727614863,0
smt_24506,23.640256968225707,327.6,7.216195655746552,4.394910492643104,0
smt_24505,23.639833268110657,327.6,7.216066321157098,4.3948246352450235,0
smt_24459,23.639469720909343,327.6,7.215955348262924,4.394750995917324,0
smt_24458,23.639031829020936,327.6,7.215821681630322,4.394662332818991,0
smt_24457,23.638591199981402,327.6,7.215687179481502,4.394573154509275,0
smt_24456,23.63818602754864,327.6,7.215563500472723,4.394491186736034,0
smt_24455,23.63777008094888,327.6,7.215436532646177,4.394407073724304,0
smt_24454,23.637371031430302,327.6,7.215314722658822,4.39432641040682,0
smt_19165,23.63693041680042,327.6,7.215180224908553,4.394237382454224,0
smt_17113,23.63646972019124,327.6,7.215039597127973,4.3941443386779255,0
smt_6993,23.63545898870591,327.6,7.214731071033549,4.393940357904291,0
smt_24453,23.63484570553345,327.6,7.2145438661579515,4.393816688472833,0
smt_24452,23.634371028781253,327.6,7.214398970934448,4.3937210211996405,0
smt_24451,23.633955007918196,327.6,7.214271980439009,4.39363721284518,0
smt_24450,23.633562027077584,327.6,7.214152022917456,4.393558077926623,0
smt_6394,23.633132103169654,327.6,7.2140207885133245,4.393471539381649,0
smt_24668,23.625919109585162,327.6,7.21181902001989,4.392025184743403,0
smt_29393,23.625750784165444,327.6,7.211767638634139,4.3919915566946015,0
smt_19218,23.624336079487332,327.6,7.211335799599307,4.39170915214787,0
smt_6502,23.623843788723928,327.6,7.211185527693506,4.391610974939939,0
smt_24667,23.623586523615558,327.6,7.211106997440646,4.391559688162187,0
smt_6683,23.62289481435383,327.6,7.21089585297736,4.3914218591763605,0
smt_19220,23.622333553217768,327.6,7.210724527844251,4.391310093761734,0
smt_22844,23.621943217217652,327.6,7.210605377661065,4.391232402451693,0
smt_6687,23.621514308199853,327.6,7.210474453052458,4.39114706897315,0
smt_24666,23.62119275510232,327.6,7.2103762988712825,4.391083118761321,0
rbt_1607252,5.494989258290657,76.65,7.168935757717751,3.3713404523086665,0
rbt_637356,4.294852901136419,61.95,6.932773044610846,3.2588745256178258,0
rbt_631391,6.181697329169746,90.3,6.845733476378458,5.18456029021184,0
rbt_605855,5.09697449644097,76.65,6.649673185180652,3.1278077699766147,0
rbt_1607255,5.953294246417023,90.3,6.592795400240337,3.099117933058294,0
rbt_636933,4.956286918863479,76.65,6.466127748028022,3.042508422126717,0
rbt_605910,3.893415711508869,61.95,6.284771124308102,2.9523034872190337,0
rbt_627343,5.637202912463187,90.3,6.24274962620508,2.933448596984549,0
sbt_28279,13.228833889946252,216.3,6.115965737376908,2.8800027610945764,0
sbt_20214,13.228826448973692,216.3,6.115962297260144,2.8800030490280055,0
rbt_1607304,3.787461415937938,61.95,6.113739170198446,2.8712837273385117,0
rbt_1607305,5.3506493665462,90.3,5.925414580892802,2.7857743072134933,0
rbt_1607285,3.634832760255052,61.95,5.867365230435919,2.754958722362874,0
rbt_606103,4.416401920360357,76.65,5.761776804123101,2.7084107706558505,0
rbt_3405846,4.401975766979749,76.65,5.74295599084116,2.700562911486101,0
rbt_606109,3.5062056076728974,61.95,5.659734637082966,2.6589224470978587,0
rbt_605825,5.109044693715494,90.3,5.657856803671643,2.660458736736215,0
sbt_4580,9.189787711785693,163.8,5.610371008416173,2.6398549619289704,0
rbt_1631852,5.057484803175516,90.3,5.600758364535455,2.6325502423362126,0
rbt_605993,5.028181391529727,90.3,5.568307188847981,2.616896375332279,0
rbt_621999,4.991463926504201,90.3,5.527645544301441,2.5982591270347917,0
rbt_630753,4.98825329844021,90.3,5.524090031495249,2.597811038710101,0
sbt_6049,9.014136963641466,163.8,5.503136119439233,2.5896307926725703,0
rbt_607384,3.302269256388931,61.95,5.330539558335643,2.5045416895151646,0
rbt_1607278,4.079230345498305,76.65,5.321892166338298,2.5006513126414283,0
smt_6110,17.413202756983345,327.6,5.315385456954623,3.0477918664035104,0
rbt_1628760,4.790529331945717,90.3,5.3051266134504065,2.492677508336396,0
rbt_3433894,4.763268325018618,90.3,5.274937237008437,2.4799990392790487,0
rbt_1607357,4.018383869899125,76.65,5.24250994115998,2.4639661812416995,0
smt_24515,16.882366223542,327.6,5.153347443083638,3.0133670823775436,0
smt_6552,16.881978752950765,327.6,5.153229167567388,3.013276849373419,0
smt_6549,16.881466799400837,327.6,5.153072893589998,3.0131576862366924,0
smt_23959,16.88101976122072,327.6,5.152936435049059,3.013053687990783,0
smt_22744,16.88048347124218,327.6,5.1527727323694075,3.0129289941350326,0
smt_19175,16.88003744520459,327.6,5.152636582785283,3.012825344007006,0
smt_19177,16.8795295820819,327.6,5.152481557412057,3.012707386146333,0
smt_19176,16.878995834830224,327.6,5.152318630900556,3.0125834879112463,0
smt_19164,16.878763438119222,327.6,5.152247691733583,3.0125295648103374,0
smt_32311,16.87836355315972,327.6,5.1521256267276305,3.0124368119120635,0
smt_39119,16.8778839121875,327.6,5.15197921617445,3.012325613662412,0
smt_32312,16.8778613916336,327.6,5.151972341768498,3.012320394410832,0
smt_32310,16.877843029798957,327.6,5.151966736812867,3.0123161384131643,0
smt_32309,16.877399199584115,327.6,5.151831257504308,3.012213300374493,0
smt_32314,16.877196284082256,327.6,5.151769317485426,3.012166301117496,0
smt_32313,16.877180877613036,327.6,5.151764614655993,3.0121627323324205,0
smt_6802,16.87700419259426,327.6,5.151710681500079,3.066649506079402,0
smt_24514,16.876449971057696,327.6,5.1515415052068665,3.066521916808622,0
smt_24513,16.87587440307501,327.6,5.1513658129044595,3.066389494007597,0
smt_19166,16.875422771614904,327.6,5.151227952263401,3.066285643284901,0
smt_6414,16.874981918297255,327.6,5.151093381653618,3.0661843198525838,0
smt_18852,16.8745357432491,327.6,5.150957186583974,3.0660818224788806,0
smt_6403,16.874040683615373,327.6,5.150806069479661,3.0659681530740275,0
smt_1832,16.87361032127809,327.6,5.150674701244838,3.0658693881765586,0
smt_1831,16.873191050541944,327.6,5.150546718724646,3.0657732130742255,0
smt_1829,16.872367912743435,327.6,5.150295455660389,3.0655845236214403,0
smt_1828,16.871772068863972,327.6,5.150113574134301,3.0654480425433888,0
smt_6350,16.785060631383338,327.6,5.123644881374645,2.9974425416264237,0
smt_24517,16.782881851107444,327.6,5.122979808030355,2.9971606992426243,0
smt_24520,16.782214129701966,327.6,5.122775985867511,2.9970050976566274,0
smt_19116,16.781898840230124,327.6,5.1226797436599885,2.9969316645927164,0
rbt_605806,4.389447536529529,90.3,4.860960727053742,2.2843914985865763,0
rbt_622714,4.323018450235164,90.3,4.787395847436506,2.2511718962118983,0
sbt_25907,10.231724298358209,216.3,4.730339481441613,1.7798167692471882,0
sbt_21361,10.23171758412565,216.3,4.730336377311905,1.779816870181702,0
sbt_20771,10.231712222566172,216.3,4.730333898551166,1.7798190206630045,0
rbt_1607258,3.613901238193023,76.65,4.71480918224791,2.217234187161219,0
smt_6066,7.703032801752998,163.8,4.7027062281764325,2.6991947507303813,0
smt_6062,7.702625904691586,163.8,4.70245781727203,2.6991204284433254,0
smt_6719,7.702176506134908,163.8,4.70218345917882,2.6990392329515225,0
smt_6176,7.701669754494578,163.8,4.701874086993026,2.698944003465462,0
smt_6144,7.701196353891053,163.8,4.701585075635563,2.698858109021915,0
smt_6227,7.700694372280702,163.8,4.701278615555983,2.698765481818343,0
smt_19063,7.700209253941715,163.8,4.700982450513867,2.6986769947181823,0
smt_6092,7.6997283230981655,163.8,4.700688841940272,2.698587034070836,0
smt_29474,7.699311588303242,163.8,4.700434425093554,2.698514251494668,0
smt_29473,7.698844989599951,163.8,4.700149566300336,2.698430678802033,0
smt_19115,7.698378102286643,163.8,4.699864531310526,2.6983428240937184,0
smt_24512,7.698009920687475,163.8,4.699639756219459,2.6982608627742994,0
rbt_627328,4.219885343746829,90.3,4.673184212344219,2.1994692362882007,0
smt_37840,7.598870994992184,163.8,4.63911538155811,2.672822048308405,0
smt_6474,7.5985387435366905,163.8,4.638912541841691,2.6727611787027468,0
smt_19061,7.598127100220218,163.8,4.638661233345676,2.6726818680536213,0
smt_29476,7.597724869934283,163.8,4.638415671510551,2.672608663147789,0
smt_6594,7.5972336348275915,163.8,4.638115772178017,2.672515550617813,0
smt_29475,7.596738229694477,163.8,4.637813327041805,2.6724191606594343,0
smt_19011,7.596311124848345,163.8,4.637552579272493,2.6723414982727416,0
smt_19014,7.595821445010041,163.8,4.6372536294322595,2.6722497501024822,0
sbt_5830,7.581756185218046,163.8,4.628666779742396,2.1778684469409,0
rbt_621168,3.511402518477495,76.65,4.581086129781467,2.1532645063297213,0
rbt_605815,4.12055793738029,90.3,4.563187084585039,2.1459403023564905,0
rbt_1107330,4.120074920633353,90.3,4.562652182318221,2.1473266945600895,0
rbt_621171,2.8191127859006517,61.95,4.550625965941326,2.1379393052616775,0
rbt_3422597,4.102072384075592,90.3,4.542715818466879,2.1365101205984933,0
rbt_606127,2.798266255110942,61.95,4.516975391623797,2.122165976645653,0
rbt_635966,2.7827467537086843,61.95,4.491923734800136,2.1106285124340443,0
rbt_1124041,4.047499298055317,90.3,4.482280507259487,2.108092903123939,0
rbt_605921,3.3351939309968888,76.65,4.3511988662712175,2.045365640264119,0
sbt_14007,7.089038181878075,163.8,4.327862137898703,2.03594237067832,0
rbt_627336,3.8712720253763684,90.3,4.287122951690331,2.014400457619718,0
rbt_1627321,3.856674343392524,90.3,4.27095719091088,2.0076107501337845,0
rbt_1607355,3.840605666454365,90.3,4.2531624213226635,1.9991246406125518,0
rbt_605902,2.63432781486426,61.95,4.2523451410238255,1.9982598071988245,0
sbt_35173,5.3506489689183825,128.1,4.176931279405451,1.963742223652306,0
rbt_1607358,3.1979504277374997,76.65,4.172146676761252,1.9612498479394311,0
sbt_21952,9.014136104006393,216.3,4.167423071662688,1.9610791431084384,0
sbt_20840,6.786912965807714,163.8,4.1434145090401175,1.9498752219059015,0
sbt_6273,6.7803856964441485,163.8,4.1394296071087595,1.9470553224085727,0
rbt_3405838,3.6839984967615886,90.3,4.079732554553255,1.9198144180191716,0
rbt_622273,2.344702769120017,57.75,4.060091375099597,1.9111581287005712,0
rbt_1107341,2.5118232012928274,61.95,4.054597580779382,1.9074417154358034,0
smt_6536,11.579616680478725,286.65,4.039636030168752,2.3886725805305464,0
smt_6703,11.579034411447577,286.65,4.039432901255042,2.3885396360414357,0
smt_6514,11.578463380735728,286.65,4.039233692913215,2.388409425610282,0
smt_6984,11.578376212260345,286.65,4.039203283537535,2.3883895634859678,0
smt_5854,11.577489263549626,286.65,4.038893864835035,2.388187685445419,0
smt_5855,11.576824667707864,286.65,4.038662015596674,2.3880366811704343,0
rbt_638617,2.5018692301567818,61.95,4.0385298307615525,1.8997957390299558,0
smt_5657,11.57627990383876,286.65,4.038471970639721,2.387913073201856,0
smt_21743,11.575705536788725,286.65,4.038271598391322,2.387782913360422,0
smt_22741,11.575116967221874,286.65,4.038066271488531,2.3876497110693418,0
smt_6098,11.574649330023066,286.65,4.037903132748323,2.3875440048654046,0
smt_19120,11.574106993835697,286.65,4.037713934706331,2.3874215546533315,0
smt_22740,11.573570169297712,286.65,4.037526659444519,2.3873004984614776,0
smt_22738,11.559129647014135,286.65,4.0324889750616215,2.3817631286836374,0
smt_6754,11.55864059931747,286.65,4.032318367108834,2.3816516207005685,0
smt_6567,11.558143422025585,286.65,4.032144923085848,2.3815383843491307,0
smt_6746,11.557649152743645,286.65,4.03197249354392,2.3814259357268677,0
smt_6812,11.557163376766363,286.65,4.03180302695495,2.3813155413260234,0
rbt_605828,3.63960406902148,90.3,4.030569290167752,1.8968247237056814,0
rbt_1607292,3.5699745476418223,90.3,3.953460185649859,1.858864612530314,0
sbt_4118,11.21633835911646,286.65,3.912903666184009,1.4247577719732636,0
rbt_1626490,3.531321182298356,90.3,3.910654686930627,2.961904644958923,0
rbt_1635060,2.4226179669598102,61.95,3.9106020451328654,1.8389074019562497,0
sbt_37156,6.382955656896539,163.8,3.896798325333662,1.830936301537097,0
rbt_605867,3.511318836858222,90.3,3.888503695302572,1.8285069241733354,0
sbt_4615,6.297183393521686,163.8,3.844434306179295,1.8099094497732644,0
sbt_3373,6.297182193651914,163.8,3.844433573658067,1.8099086546436352,0
sbt_20793,6.297181092011656,163.8,3.844432901106017,1.8099079307798271,0
sbt_4010,6.2971793837272525,163.8,3.8444318581973453,1.8099068194010852,0
sbt_28804,6.297177831942422,163.8,3.8444309108317594,1.8099058209199559,0
rbt_605812,3.429058711546298,90.3,3.7974072110147263,1.7871994778331732,0
rbt_632613,3.425895727836435,90.3,3.7939044605054653,1.784503070599044,0
rbt_622713,3.408501852894428,90.3,3.7746421405253914,1.7737408142929347,0
rbt_606120,2.3273917866444624,61.95,3.756887468352643,1.7646897678395181,0
sbt_26269,8.060102206147228,216.3,3.7263533084360736,1.7522722799360346,0
rbt_1132019,3.3189159227536877,90.3,3.6754329155633307,1.7281720935204874,0
rbt_605863,3.3028222749015574,90.3,3.6576104926927546,1.72027343676233,0
rbt_634166,2.7755394007857648,76.65,3.6210559697139786,1.7016094346896111,0
rbt_1138614,2.2283927413690843,61.95,3.5970827140743893,1.691332769238442,0
smt_7052,5.857594319946635,163.8,3.576064908392329,1.9364210033536022,0
rbt_605803,3.2076089505595586,90.3,3.5521693804646275,1.6698443858450025,0
rbt_605834,3.184750357574719,90.3,3.526855324003011,1.6604060673789773,0
smt_29484,5.761309551211386,163.8,3.517282998297549,1.7426070075764741,0
smt_22951,5.7612960842032965,163.8,3.517274776680889,1.7425987295688306,0
rbt_605904,2.1787020334933342,61.95,3.516871724767287,1.651331671910877,0
smt_19381,5.7599618208228565,163.8,3.5164602080725618,1.7417797369232126,0
smt_18804,5.759267189045086,163.8,3.51603613494816,1.7413542755467468,0
smt_19380,5.758471155443963,163.8,3.515550155948695,1.7408674800962534,0
smt_5349,5.757833368056487,163.8,3.5151607863592713,1.7404780554735362,0
smt_18803,5.75718557146923,163.8,3.514765306147271,1.7400830671387986,0
smt_13454,5.756524110237254,163.8,3.514361483661327,1.7396803185206278,0
smt_19377,5.755737823121548,163.8,3.5138814548971595,1.7392023206342995,0
smt_37837,7.599429677497637,216.3,3.513374793110327,2.0241611559859827,0
smt_29411,5.754749303915359,163.8,3.5132779633182896,1.7386025500197837,0
smt_37841,7.5990822088258065,216.3,3.5132141510983845,2.0241061841952797,0
smt_8954,5.75414195108129,163.8,3.5129071740423012,1.7382346949297165,0
smt_5584,5.75343395769482,163.8,3.5124749436476312,1.73780651015275,0
rbt_605810,2.6873961065191234,76.65,3.506061456645954,1.6478701463107743,0
rbt_605864,3.1578871634764623,90.3,3.497106493329415,1.6448018568605853,0
rbt_609682,2.6621631076247065,76.65,3.473141692921991,1.6339362709455572,0
rbt_622703,2.1361760134626255,61.95,3.4482260104320024,2.6121079725684595,0
rbt_605835,3.1124338776588334,90.3,3.4467706286365822,1.6226864485214518,0
sbt_14006,5.634778319135343,163.8,3.4400356038677304,1.6177102677474913,0
sbt_27416,7.336667555319144,216.3,3.391894385260815,1.5951391898541762,0
sbt_15213,7.336667504611088,216.3,3.391894361817424,1.5951391789039064,0
rbt_606128,2.5858287145713583,76.65,3.3735534436677863,1.5854237577871333,0
sbt_37537,7.277512160568215,216.3,3.364545612837825,1.3106752265158494,0
sbt_37545,7.277503516125445,216.3,3.3645416163316892,1.3106758161199557,0
sbt_37546,7.277486798338441,216.3,3.364533887350181,1.3106747299491397,0
sbt_37539,7.2697052164098155,216.3,3.3609362997733774,1.8288502412743923,0
sbt_37538,7.269699688083514,216.3,3.360933743912859,1.8288507649260195,0
rbt_1607257,3.0188558786147204,90.3,3.343140507878982,1.5714977763398454,0
rbt_607385,3.0129183500029546,90.3,3.3365651716533273,1.5693384538486772,0
rbt_3405845,3.003207588094887,90.3,3.3258112824971064,1.5655737369573661,0
rbt_633056,2.999237051184879,90.3,3.3214142316554582,1.5616126451077312,0
rbt_606141,2.9959600893340177,90.3,3.3177852595061106,1.561853999330263,0
rbt_623015,2.9879880624341935,90.3,3.308956879772086,2.5063167498295296,0
sbt_34389,4.219884091495113,128.1,3.2942108442584805,2.534877311562689,0
smt_25186,5.382862386460212,163.8,3.286240773174732,1.7951638842521689,0
smt_37855,7.048558298142887,216.3,3.258695468397081,1.750272172536253,0
smt_37854,7.048197634028859,216.3,3.258528725857077,1.7502579388122388,0
smt_37853,7.047865748539975,216.3,3.2583752882755315,1.7502489794374663,0
smt_37852,7.0475250973768935,216.3,3.258217798140034,1.7502368444410379,0
smt_37851,7.047204250651098,216.3,3.2580694640088295,1.75022916826722,0
smt_37850,7.046870531126048,216.3,3.257915178514123,1.7502197873683365,0
smt_37849,7.046538181311927,216.3,3.2577615262653383,1.7502121955045338,0
smt_37848,7.046193967787881,216.3,3.257602389176089,1.7502030678549518,0
smt_37847,7.045851056893407,216.3,3.2574438543196518,1.7501827362737197,0
smt_37846,7.045610047340521,216.3,3.2573324305781415,1.7501868560033504,0
smt_37845,7.045281086468692,216.3,3.2571803451080408,1.7501814678673393,0
smt_38000,7.044930453943591,216.3,3.257018240380763,1.7501671124547513,0
smt_38002,7.0446335148742305,216.3,3.2568809592576193,1.7501266304424565,0
smt_38001,7.044625814885877,216.3,3.2568773993924536,1.7501270709899523,0
smt_37843,7.044614124649837,216.3,3.2568719947525833,1.7501630843783387,0
smt_37842,7.044290744786393,216.3,3.256722489499025,1.7501377699120375,0
smt_37838,7.0441236217168335,216.3,3.2566452250193403,1.7501460892666172,0
rbt_605982,2.9272571815971316,90.3,3.2417023052016964,1.525186052673047,0
rbt_1606000,2.925965208484799,90.3,3.240271548709633,1.5234164897037765,0
rbt_1629639,2.913126678073127,90.3,3.2260539070577265,1.515711038096857,0
sbt_3952,5.267200995766922,163.8,3.215629423545129,1.5133113108344032,0
sbt_4120,5.267199579555624,163.8,3.2156285589472673,1.5133103930196619,0
sbt_20855,5.267198198816737,163.8,3.2156277160053337,1.513309505180269,0
sbt_20854,5.267196887331428,163.8,3.215626915342752,1.513308668003404,0
rbt_635963,1.9909132420776627,61.95,3.2137421179623287,1.5095364582670516,0
rbt_626481,2.863468496187061,90.3,3.171061457571496,1.4905626518497055,0
rbt_1607306,2.4146909229276483,76.65,3.150281699840376,1.4812619347174427,0
rbt_605901,2.8355551263872525,90.3,3.140149641624865,1.475513030686823,0
rbt_605820,2.40299835139555,76.65,3.1350272033862363,1.4745338846403915,0
rbt_3405847,2.8294623922382303,90.3,3.13340242772783,1.4748832924502355,0
sbt_34000,6.735971785567965,216.3,3.1141802059953605,1.4637889115650127,0
rbt_1607289,2.3869272675620246,76.65,3.114060362116144,1.4633988059752518,0
sbt_20828,5.054198266048849,163.8,3.085591127013949,1.4503100828168336,0
rbt_1609690,2.7446433600997677,90.3,3.0394721595789234,1.4281636776066273,0
smt_15243,4.9550214943608575,163.8,3.0250436473509508,1.7734891147178298,0
smt_26472,4.95458608620963,163.8,3.024777830408809,1.7734254763508799,0
smt_14780,4.954092701482036,163.8,3.0244766187314016,1.7733499526381014,0
smt_14754,4.953600492277514,163.8,3.0241761247115466,1.773275338932444,0
smt_14729,4.953110856341285,163.8,3.023877201673556,1.7780134458509942,0
smt_21229,4.952613922965353,163.8,3.023573823544172,1.7779390665521595,0
smt_26474,4.952145758220785,163.8,3.0232880086817975,1.7778678613556302,0
smt_22453,4.95173292536448,163.8,3.023035973970989,1.7778143960950634,0
smt_14544,4.951237149269727,163.8,3.0227333023624703,1.7777443580505459,0
smt_14113,4.950742117472394,163.8,3.022431085147981,1.7776786233169826,0
smt_22508,4.950199156636933,163.8,3.0220996072264548,1.77759944789502,0
smt_14452,4.949720597304301,163.8,3.021807446461722,1.7775289792058009,0
smt_6512,8.661533347056551,286.65,3.021640797856812,1.8036879128844303,0
smt_30311,4.94931909895854,163.8,3.02156233147652,1.7774816707388865,0
smt_6425,8.661146506832967,286.65,3.0215058457467183,1.803611472763415,0
smt_6930,8.660553926409918,286.65,3.0212991196266943,1.8034934990041762,0
smt_26478,4.94882407643076,163.8,3.021260119921098,1.7774096551263547,0
sbt_34382,3.864348588501318,128.1,3.016665564794159,1.417642945303764,0
rbt_1625170,2.7223176906106494,90.3,3.0147482731014947,1.4166501731086845,0
smt_37856,6.5050836666015135,216.3,3.00743581442511,1.64493345589037,0
rbt_605821,3.8491976647769457,128.1,3.004838145805578,1.4118236292360862,0
sbt_35105,3.840605303616573,128.1,2.998130603916138,1.409218716511675,0
rbt_605988,2.687096816201584,90.3,2.9757439825045227,1.4004802327666417,0
smt_22686,8.473568307233826,286.65,2.956067785534215,1.8504388688071718,0
smt_6239,8.473113511638575,286.65,2.9559091266836126,1.8503454905522672,0
smt_23961,8.472669599808937,286.65,2.9557542647161825,1.850254534404027,0
smt_29407,8.472218048986422,286.65,2.9555967378288583,1.8501620529756162,0
smt_6278,8.471813632583714,286.65,2.9554556541370016,1.8500795939506072,0
smt_6630,8.47134212374277,286.65,2.9552911647454287,1.8499834521369831,0
smt_19070,8.470868385305975,286.65,2.955125897542639,1.849887022454466,0
smt_6639,8.470394943512655,286.65,2.954960733826149,1.8497907417690378,0
smt_19117,8.469953026432753,286.65,2.9548065677421085,1.8497010223534678,0
smt_21514,8.465414219790791,286.65,2.953223171041616,1.844274822063767,0
smt_5615,8.464956412393084,286.65,2.9530634615011633,1.8441789687880286,0
smt_18742,8.464599889087042,286.65,2.9529390856748794,1.8441045844569095,0
smt_6270,8.464039969425956,286.65,2.9527437535063514,1.8439876998447742,0
smt_5967,8.463604488355456,286.65,2.9525918326724074,1.8438970792835692,0
smt_5772,8.463090790084834,286.65,2.9524126251822205,1.8437902935471129,0
smt_6158,8.462582748704058,286.65,2.9522353911404355,1.8436848124306817,0
smt_6263,8.46214277772282,286.65,2.9520819039674935,1.8435938018431435,0
smt_6384,8.461597160290324,286.65,2.9518915612385577,1.8434809866516388,0
smt_22684,8.461063310047841,286.65,2.9517053235820137,1.843370698351204,0
smt_22685,8.46062774332163,286.65,2.9515533728664334,1.8432810110235005,0
smt_29447,8.460171095151647,286.65,2.951394067731257,1.843187160174792,0
smt_19065,8.459681908826648,286.65,2.9512234114169362,1.8430868657358577,0
smt_24385,8.45912917934835,286.65,2.9510305875975407,1.8429736324328998,0
smt_29448,8.457442242871391,286.65,2.950442087169507,1.8305968158560588,0
smt_6824,8.456995921421393,286.65,2.9502863845879626,1.8305009420508018,0
smt_6855,8.456517357248662,286.65,2.950119433891039,1.830398306426768,0
smt_19062,8.455958497591736,286.65,2.949924471512903,1.8302786657036172,0
smt_7054,8.455514299217576,286.65,2.9497695095822696,1.830183737628435,0
smt_6446,8.455060456505345,286.65,2.9496111831520477,1.8300869006382294,0
smt_39006,8.454595476051821,286.65,2.9494489712373353,1.8299878469215658,0
smt_39008,8.454175322010927,286.65,2.9493023973524957,1.8298984815246966,0
smt_39007,8.45415761299238,286.65,2.9492962194287045,1.82989471778025,0
smt_6122,8.45375440393711,286.65,2.949155556929046,1.8298090866982504,0
smt_18741,8.453245589056314,286.65,2.948978053045985,1.8297012115785343,0
smt_5938,8.452774194894944,286.65,2.94881360366124,1.82960149375216,0
smt_5946,8.452229867552397,286.65,2.9486237109898474,1.829486542796051,0
smt_856,4.829730703537475,163.8,2.9485535430631713,1.7365393989494244,0
smt_15622,4.829186819221133,163.8,2.9482215013560027,1.7364442179683024,0
smt_23196,4.828884589060644,163.8,2.948036989658513,1.7364025070512046,0
smt_15581,4.8285606160184775,163.8,2.947839203918484,1.7363584406977608,0
smt_15568,4.828209967057562,163.8,2.947625132513774,1.7363083824751542,0
rbt_605804,1.8217374484885813,61.95,2.9406577053891545,1.3819938133801,0
sbt_6048,4.76240880693241,163.8,2.9074534840857207,1.3682459258263944,0
rbt_605829,2.619128542909362,90.3,2.9004745768652955,1.3635747786396262,0
sbt_15045,6.258701907329515,216.3,2.8935283898888184,1.3610584436711655,0
smt_23147,4.720448684040688,163.8,2.8818368034436435,1.7086960215299662,0
smt_16038,4.720138490753684,163.8,2.8816474302525545,1.7086953820698783,0
smt_37925,6.219443639700272,216.3,2.8753784742026225,1.5802658555190376,0
smt_37924,6.219281913278082,216.3,2.8753037047055394,1.5802879742909217,0
smt_37923,6.21893585849838,216.3,2.875143716365409,1.5802848974453438,0
smt_37864,6.218594790484722,216.3,2.8749860335111976,1.5802597238379874,0
smt_37863,6.218433227560995,216.3,2.874911339602864,1.580258742807317,0
smt_37862,6.218271849887254,216.3,2.8748367313394607,1.5802714232795012,0
smt_37861,6.218005325189403,216.3,2.8747135114144258,1.5802774335724095,0
smt_37860,6.217682718250076,216.3,2.874564363499804,1.5802784641080854,0
smt_37859,6.217342591057807,216.3,2.8744071156069375,1.5802660619293334,0
smt_37858,6.217089205858994,216.3,2.8742899703462754,1.5802782078399542,0
smt_37831,6.216738901887206,216.3,2.8741280175160453,1.58025339260675,0
rbt_1607316,2.590113117834508,90.3,2.868342323183287,2.1735180596302794,0
rbt_1107342,1.776684699570756,61.95,2.8679333326404453,1.3484795451961504,0
smt_37898,6.20090131828277,216.3,2.866805972391479,1.5722943506040952,0
smt_37897,6.200514300542859,216.3,2.866627046020739,1.572272244954772,0
smt_37896,6.200178080509235,216.3,2.8664716044887815,1.572260041927015,0
smt_37895,6.199817492002361,216.3,2.8663048969035416,1.5722441018173001,0
smt_37894,6.199462721901152,216.3,2.866140879288558,1.5722273534602633,0
smt_37893,6.199127220313945,216.3,2.865985769909359,1.5722150783139426,0
smt_37892,6.198777059866872,216.3,2.8658238834335976,1.5721997536495158,0
smt_37891,6.198439369145901,216.3,2.865667761972215,1.5721886395065585,0
smt_37890,6.198080331853394,216.3,2.8655017715457207,1.5721877742982775,0
smt_37889,6.197595283369582,216.3,2.8652775235180683,1.572144698861105,0
smt_37888,6.197351566600027,216.3,2.865164848173845,1.5721346404612697,0
smt_37887,6.197118266427306,216.3,2.8650569886395307,1.57213949990001,0
smt_37886,6.196757281615394,216.3,2.864890097834209,1.572125353863086,0
smt_37885,6.196409519949853,216.3,2.8647293203651656,1.5721137224376742,0
smt_37884,6.196058259569636,216.3,2.8645669253673764,1.5721020175911715,0
smt_37883,6.195705874568468,216.3,2.8644040104338733,1.572091582419208,0
smt_37882,6.195342959334629,216.3,2.8642362271542434,1.572078694825939,0
smt_37881,6.194992112051889,216.3,2.8640740231400317,1.5720683493237602,0
smt_37880,6.194636089071287,216.3,2.863909426292782,1.5720552593163746,0
smt_37879,6.194301449211586,216.3,2.8637547153081764,1.572049174612965,0
smt_37878,6.193932532298625,216.3,2.8635841573271494,1.5720362396673746,0
smt_37877,6.193585563804056,216.3,2.8634237465575847,1.572028048924335,0
smt_37876,6.193225927049506,216.3,2.863257478987289,1.5720185992004276,0
smt_37875,6.192864698805841,216.3,2.8630904756383915,1.572009410878741,0
smt_37874,6.192502089854543,216.3,2.8629228339595665,1.5719991809719203,0
smt_37873,6.192149952868337,216.3,2.8627600336885513,1.57198782231979,0
smt_37945,6.191823101741237,216.3,2.8626089235974277,1.571969472277371,0
smt_37944,6.191590126283605,216.3,2.86250121418567,1.5719687297439853,0
smt_37943,6.191317368946965,216.3,2.8623751127817685,1.571968247204616,0
smt_37942,6.190996620014821,216.3,2.8622268238626076,1.5719611147159418,0
smt_37941,6.190678616562881,216.3,2.862079804236191,1.5719542623984886,0
smt_37940,6.190363599085145,216.3,2.8619341650879075,1.5719488420924357,0
smt_37939,6.190041982537585,216.3,2.8617854750520504,1.5719435748097927,0
smt_37938,6.189713619550775,216.3,2.86163366599666,1.5719381061260085,0
smt_37937,6.189381468838794,216.3,2.8614801057969452,1.5719317127859034,0
smt_37936,6.18905505531345,216.3,2.8613291980182383,1.571926384061129,0
smt_37935,6.1887285309236075,216.3,2.861178238984562,1.5719175417393891,0
smt_37934,6.188433211086094,216.3,2.8610417064660627,1.5719164884133099,0
smt_37933,6.188110517297476,216.3,2.860892518399203,1.5719121965914467,0
smt_37932,6.187786039752737,216.3,2.8607425056646956,1.5719079392324398,0
smt_13546,4.666693793367116,163.8,2.849019409870034,1.691063765259534,0
smt_21225,4.666403156449674,163.8,2.848841975854502,1.6910304133668899,0
smt_13930,4.665880389165176,163.8,2.848522826108166,1.6909451087548595,0
smt_21226,4.665361545780015,163.8,2.848206071904771,1.69085384867071,0
smt_13280,4.664964692138787,163.8,2.8479637925145216,1.6907894895943443,0
smt_14437,4.664586972283499,163.8,2.84773319431227,1.6907302145817802,0
smt_13955,4.664206210320368,163.8,2.8475007389013234,1.6906711797202334,0
smt_26469,4.663820544489859,163.8,2.8472652896763484,1.6906083144740738,0
smt_20808,4.663483558540236,163.8,2.847059559548373,1.6905578624412874,0
smt_23095,4.663130754840294,163.8,2.846844172674172,1.6904921525212773,0
smt_20807,4.662952865973155,163.8,2.8467355714121823,1.6904792179130086,0
smt_13717,4.662577880981877,163.8,2.846506642846079,1.6904177934744027,0
smt_37986,6.12139480965978,216.3,2.8300484556910677,1.5932877758292463,0
smt_37987,6.121144963787342,216.3,2.8299329467347856,1.5932703810782496,0
smt_37993,6.120825787052825,216.3,2.8297853846753696,1.5932329904232263,0
smt_37920,6.120666220532586,216.3,2.829711613745994,1.5932335241566984,0
smt_37919,6.120278933000344,216.3,2.8295325626446344,1.5932002064974284,0
smt_37918,6.119898799511729,216.3,2.8293568190068097,1.5931672048045853,0
smt_37917,6.119535195723649,216.3,2.829188717394197,1.5931376335711744,0
smt_37916,6.119160601789294,216.3,2.82901553480781,1.593106413940985,0
smt_37915,6.118791139716651,216.3,2.8288447247880955,1.5930700476051118,0
smt_37914,6.118516704626752,216.3,2.8287178477238797,1.593053357373084,0
smt_37913,6.118157439444612,216.3,2.8285517519392567,1.5930257560850738,0
smt_37912,6.1177794177295555,216.3,2.8283769846183797,1.5929949239456567,0
smt_40685,6.117413342388916,216.3,2.8282077403554857,1.5929647366606465,0
smt_37911,6.1170666229175525,216.3,2.828047444714541,1.592915778996401,0
smt_37910,6.1170463004374955,216.3,2.8280380492082733,1.5929379619223332,0
smt_37909,6.11667423597271,216.3,2.82786603604841,1.592908796873744,0
smt_37908,6.116309544143099,216.3,2.827697431411511,1.592882140299408,0
smt_40683,6.115928244277685,216.3,2.8275211485333727,1.592851526663173,0
smt_37906,6.115573862029718,216.3,2.82735731023103,1.5928259811243743,0
smt_37905,6.115206696576533,216.3,2.8271875619863764,1.5927970981040585,0
smt_37904,6.114864916986349,216.3,2.827029550155501,1.5927722049648623,0
smt_37903,6.114522151877375,216.3,2.82687108269874,1.5927414867856722,0
smt_14797,4.629083134260711,163.8,2.826058079524243,1.6734879406266014,0
smt_23041,4.628701114999379,163.8,2.8258248565319772,1.6734251337075206,0
smt_14823,4.628314060729015,163.8,2.825588559663623,1.673362068264657,0
smt_13752,4.627921489213743,163.8,2.8253488945138847,1.6732739580094886,0
sbt_22669,6.10465513482234,216.3,2.8223093549802774,1.326883085017257,0
rbt_3405987,1.7479328223126176,61.95,2.8215219084949434,1.3282931988479032,0
smt_23225,4.616274559350677,163.8,2.8182384367220243,1.6667491865841197,0
smt_21220,4.6158407215040915,163.8,2.817973578451826,1.6666738203778975,0
smt_14845,4.615387597205254,163.8,2.8176969457907535,1.6665957002737972,0
smt_26425,4.614918603826655,163.8,2.8174106250467976,1.6665146018163641,0
smt_20810,4.614452694034107,163.8,2.8171261868340087,1.6664307039000459,0
smt_26429,4.614060436755504,163.8,2.8168867135259483,1.6663641884666995,0
smt_26430,4.613671477386623,163.8,2.8166492535937864,1.6662988765655864,0
rbt_1132012,2.537529732268912,90.3,2.8101104454805226,1.3207351185308644,0
smt_21222,4.601518966985683,163.8,2.8092301385748977,1.6604830121167093,0
smt_14301,4.601200718471754,163.8,2.809035847662853,1.6604274207166572,0
smt_23277,4.600798719628782,163.8,2.8087904271237982,1.6603512827850013,0
smt_26427,4.600420678782401,163.8,2.8085596329562885,1.6602824475622115,0
smt_20812,4.600022342828547,163.8,2.8083164486132763,1.660209469888417,0
smt_15154,4.599623219650992,163.8,2.8080727836697137,1.6601357104883485,0
smt_14674,4.599246902971604,163.8,2.8078430421072063,1.6600719263768198,0
rbt_1607268,2.1515025764076054,76.65,2.806917907902942,1.3190858197914392,0
smt_37963,6.06897891225157,216.3,2.8058154934126533,1.5703606223909896,0
smt_37983,6.068503725279834,216.3,2.8055958045676532,1.5703160719999565,0
smt_37984,6.068020827692713,216.3,2.805372550944389,1.5702703799632423,0
smt_37985,6.067545838724562,216.3,2.8051529536405737,1.5702258972721586,0
smt_37947,6.067078649390867,216.3,2.804936962270396,1.5701806938031568,0
smt_37948,6.066651358018154,216.3,2.8047394165594794,1.5701425764035013,0
sbt_35588,6.055833513099994,216.3,2.7997381012944955,1.3157670246930684,0
rbt_605823,2.5259582400325953,90.3,2.7972959468799505,1.315463875140228,0
sbt_21281,4.534394575906188,163.8,2.7682506568413845,1.3006618874146418,0
rbt_605989,2.4680802640062973,90.3,2.7332007353336625,1.284580263659864,0
rbt_1121173,2.4636950335918573,90.3,2.728344444730739,1.283325926741689,0
rbt_605807,2.4573055838743767,90.3,2.7212686421643153,1.2802966893199055,0
smt_29426,5.8583163528813715,216.3,2.7084217997602273,1.4667415549502412,0
rbt_606130,2.0699549278475926,76.65,2.7005282816015557,1.2689390173292208,0
sbt_3491,4.416398676538108,163.8,2.696214088240603,1.2673953235435473,0
rbt_637399,1.6604793971344882,61.95,2.6803541519523617,1.2595439654740177,0
sbt_21191,4.381019889193664,163.8,2.6746153169680484,1.2575196116151943,0
sbt_26310,4.323018042729909,163.8,2.6392051542917634,1.2410304059657629,0
rbt_637705,2.3693836313656624,90.3,2.6239021388324058,1.9876289096161985,0
rbt_1105833,2.3620818363590086,90.3,2.6158159871085367,1.2296133427991616,0
rbt_1607276,2.352629971907462,90.3,2.6053488060990717,1.2242163565639468,0
smt_37960,5.621400027088285,216.3,2.5988904424818697,1.4917503890956123,0
smt_37962,5.62099064714404,216.3,2.5987011775977993,1.4917124787871903,0
smt_37981,5.602734259743163,216.3,2.590260869044458,1.467626730049058,0
smt_37951,5.602351141480976,216.3,2.590083745483576,1.4675878663218906,0
smt_37952,5.601967409880355,216.3,2.589906338363548,1.4675538514364377,0
smt_37953,5.60149510269309,216.3,2.589687980902954,1.4675059264906036,0
smt_37954,5.601040174011545,216.3,2.5894776578879077,1.4695455024614923,0
smt_37955,5.60054656955362,216.3,2.5892494542550253,1.4694951187075702,0
smt_37956,5.600149742976353,216.3,2.589065993054255,1.46946418901544,0
smt_37957,5.599680448780695,216.3,2.588849028562503,1.4694226832766903,0
smt_37958,5.599213893713979,216.3,2.5886333304271747,1.4693826600202062,0
smt_37959,5.59873850979872,216.3,2.588413550531077,1.4693412616135795,0
rbt_1607319,2.315685624914961,90.3,2.5644359079899903,1.8216205473139657,0
rbt_622709,2.3129275481440947,90.3,2.561381559406528,1.2042233111633234,0
rbt_1607328,2.3106576733534108,90.3,2.558867855319392,1.2032400740771587,0
rbt_607366,2.309543239661473,90.3,2.557633709481144,1.2019316913886948,0
smt_37979,5.482186887538367,216.3,2.5345293053806595,1.4558106464200078,0
smt_37980,5.481779952391135,216.3,2.5343411707772234,1.4557514750177092,0
sbt_21953,4.1200752157647464,163.8,2.515308434532812,1.1837826947836776,0
sbt_21849,4.120075149396301,163.8,2.5153083940148355,1.1837826754947482,0
sbt_21968,4.120075068984609,163.8,2.5153083449234486,1.1837826521725905,0
smt_6074,7.176799863901611,286.65,2.5036803990586467,1.4815547371149205,0
smt_6082,7.176330517406575,286.65,2.5035166640176434,1.481473935364879,0
smt_6649,7.175867968149553,286.65,2.5033553002440443,1.4813944705185607,0
smt_29408,7.1754157231373314,286.65,2.5031975311834405,1.4813171916527252,0
smt_6422,7.17496251976738,286.65,2.5030394277925625,1.4812399970593606,0
smt_22683,7.174506990899562,286.65,2.502880513134332,1.4811625626263354,0
smt_22793,7.155835353569831,286.65,2.4963667725692766,1.4678144214173185,0
smt_22790,7.155360821289241,286.65,2.496201228428132,1.46772879497383,0
smt_29449,7.154923498603821,286.65,2.496048665133027,1.4683960386185655,0
smt_6370,7.154902736023428,286.65,2.4960414219513094,1.4676465946713542,0
smt_6401,7.15446620636267,286.65,2.495889135308799,1.4683159657457654,0
smt_29409,7.15444227012064,286.65,2.4958807849714426,1.467564454314031,0
smt_21348,7.154006324433133,286.65,2.495728702052375,1.468242971710547,0
smt_5650,7.153959859011333,286.65,2.4957124922418745,1.4674782506131516,0
smt_6094,7.153483607647325,286.65,2.4955463483856013,1.4673919309470191,0
smt_29477,7.1531179061348755,286.65,2.495418770673252,1.4673281193708565,0
smt_29450,7.152670982289967,286.65,2.4952628579417295,1.467249584704807,0
smt_6231,7.152179625501302,286.65,2.495091444444899,1.4671623444786386,0
smt_6340,7.151719165920999,286.65,2.494930809670678,1.4670814478418015,0
smt_25183,5.38223098222285,216.3,2.488317606205663,1.359152988408508,0
smt_25117,5.381586275063839,216.3,2.4880195446434756,1.358855632717894,0
smt_25116,5.380923576827345,216.3,2.4877131654310425,1.3585502879422844,0
smt_25115,5.38040510205799,216.3,2.487473463734623,1.3583116145787948,0
smt_25114,5.37995007902909,216.3,2.4872630971008274,1.3581023093591342,0
smt_25113,5.379419086866424,216.3,2.487017608352484,1.3578582475357128,0
smt_25112,5.378858211445727,216.3,2.4867583039508676,1.3576006711968454,0
smt_25111,5.378490766064083,216.3,2.486588426289451,1.357432049034724,0
smt_25110,5.378225370841549,216.3,2.486465728544405,1.3573103188747464,0
smt_25109,5.377525404737753,216.3,2.486142119619858,1.3569895074659841,0
smt_25108,5.3769925068423685,216.3,2.4858957498115433,1.3567455067100997,0
smt_25107,5.37627464905929,216.3,2.48556386919061,1.3564171454688794,0
smt_25106,5.375647912670344,216.3,2.4852741158901264,1.3561307738626123,0
smt_25105,5.375006811249355,216.3,2.4849777213358086,1.3558381375502415,0
smt_29427,5.374365427110658,216.3,2.4846811960752,1.3555456758368551,0
smt_6407,5.373095979472243,216.3,2.4840943039631265,1.3549677260131203,0
smt_22794,5.3724641860568685,216.3,2.4838022126938823,1.354680532716529,0
smt_6477,5.371766952246581,216.3,2.4834798669655944,1.3543639390603677,0
smt_6641,5.370861194533231,216.3,2.4830611162890572,1.3539532062543975,0
smt_6157,5.370225244375726,216.3,2.482767103271256,1.3536651925704126,0
smt_6694,5.369507032683433,216.3,2.4824350590307134,1.3533402920720692,0
smt_6581,7.0877790346140666,286.65,2.4726248158430377,1.4413801718352222,0
smt_6701,7.0873156664426755,286.65,2.4724631663850256,1.4413015094759594,0
smt_21959,7.086806815901424,286.65,2.472285650061547,1.4412134516449215,0
rbt_1633892,2.232295003230365,90.3,2.4720874897346237,1.161906230809002,0
sbt_21137,4.047496728749357,163.8,2.470999223900706,1.162152169774737,0
smt_19219,7.0775467466955515,286.65,2.4690552055452826,1.4306099197555582,0
smt_5952,7.0770567319296696,286.65,2.4688842602231538,1.430518150325591,0
smt_29478,7.076545727162453,286.65,2.4687059923818087,1.4304219309439923,0
smt_22841,7.076095477188216,286.65,2.4685489193051513,1.4303382325097693,0
smt_6660,7.075609116136543,286.65,2.468379248608597,1.430247491593277,0
rbt_1134165,2.226584165430663,90.3,2.465763195382794,1.1603038922502444,0
rbt_1131858,2.225299660265539,90.3,2.4643407090426788,1.1592961747484045,0
smt_22845,7.03615618940478,286.65,2.454615799548153,1.407249533344549,0
smt_18913,7.035588215126047,286.65,2.454417657465916,1.4071422169885048,0
smt_5786,7.035037735552831,286.65,2.4542256185427638,1.4070380133199383,0
smt_29479,7.034563835443935,286.65,2.4540602949394508,1.4069492151515053,0
smt_19224,7.034076809746353,286.65,2.453890392376192,1.4068583109477721,0
rbt_1607353,2.2061197549977107,90.3,2.443100503873434,1.1482449464140954,0
sbt_34390,3.9873623037888106,163.8,2.4342871207501897,1.8440296113430106,0
smt_37973,5.100639430422238,216.3,2.358131960435616,1.3813492849525926,0
smt_37991,5.100463090884807,216.3,2.358050434990664,1.3813354907207416,0
smt_37974,5.100214546029427,216.3,2.357935527521695,1.381320272503246,0
smt_37990,5.0997908407397565,216.3,2.3577396397317414,1.381276704542185,0
smt_37975,5.0993990056767275,216.3,2.357558486212079,1.3812402306519653,0
smt_37976,5.098975008645046,216.3,2.3573624635437103,1.381198940839529,0
smt_37977,5.098556901334862,216.3,2.357169163816395,1.38115784083719,0
smt_37978,5.098159027969347,216.3,2.3569852186635907,1.3811227589780826,0
smt_37970,5.055602922952527,216.3,2.337310643990997,1.3708514796226288,0
smt_37971,5.055046017674075,216.3,2.3370531750689203,1.3707818120439133,0
smt_37972,5.05475814885878,216.3,2.3369200873133518,1.3707607634711438,0
smt_37989,5.0543472806441425,216.3,2.336730134370847,1.370755891108271,0
sbt_20633,3.8179080265109118,163.8,2.3308351810200927,1.5383104846943076,0
sbt_4619,4.991463739237063,216.3,2.3076577620143612,1.084710032960449,0
smt_37964,4.948416299786119,216.3,2.2877560331882196,1.3459478961872158,0
smt_37965,4.946962577546086,216.3,2.2870839470855686,1.34580564172341,0
smt_37994,4.946772797660964,216.3,2.2869962078876394,1.34577688632709,0
smt_37995,4.946768308264915,216.3,2.286994132346239,1.3457765883085522,0
smt_37996,4.946762902931627,216.3,2.286991633347955,1.345794722324528,0
smt_37966,4.946434132761984,216.3,2.2868396360434504,1.3457680988468448,0
smt_37967,4.946032214234415,216.3,2.2866538207278846,1.3457313749766595,0
smt_37968,4.945620109057399,216.3,2.2864632959118807,1.3456931149981262,0
smt_37969,4.945215649166738,216.3,2.286276305671169,1.3456508295361054,0
rbt_606110,1.3873091652240477,61.95,2.239401396648987,1.0521627725609364,0
rbt_1607284,2.014618249331269,90.3,2.231027961607164,1.0488484849682307,0
rbt_1607302,1.365522311901621,61.95,2.2042329489937385,1.0356073798378915,0
rbt_607382,1.9695707945296932,90.3,2.181141522181277,1.0254534844141474,0
rbt_1607273,1.6707568047811023,76.65,2.179721858814223,1.0242326615270787,0
sbt_26614,3.5313209054981654,162.75,2.169782430413619,1.6433791789921852,0
sbt_26512,3.531319317918083,162.75,2.1697814549419863,1.6433781914239607,0
sbt_16246,3.531318739182928,162.75,2.1697810993443487,1.643377832011522,0
sbt_5828,3.5313159991525658,163.8,2.1558705733532144,1.6328416715290148,0
sbt_3790,3.506204966047577,163.8,2.140540272312318,1.0056177103711497,0
rbt_1137150,1.318143747160831,61.95,2.1277542327051346,1.0002824920169673,0
rbt_3405843,1.9159298670066713,90.3,2.1217385016685175,0.997728951654739,0
rbt_1607288,1.6104236464583708,76.65,2.1010093234942864,0.9875080774949819,0
rbt_605817,1.6020574048897496,76.65,2.0900944616956942,0.9824381669578218,0
smt_13591,3.4035837943489238,163.8,2.077889984340002,1.0304556170632913,0
sbt_30492,2.585826350862015,124.95,2.0694888762401082,0.9725689532954602,0
rbt_607387,1.859233879269648,90.3,2.058952247253209,0.9675990414032013,0
sbt_21147,2.6342923309559203,128.1,2.056434294266917,0.966343550836472,0
sbt_17923,2.6342868502160797,128.1,2.056430015781483,0.9663392325566393,0
rbt_626695,1.8511874036037677,90.3,2.050041421488115,1.5529575819266859,0
rbt_623432,1.8510882584403892,90.3,2.049931626179833,0.9638724899137011,0
sbt_3473,3.3351916077497976,163.8,2.036136512667764,0.9571247848003179,0
sbt_26790,4.392881435865242,216.3,2.030920682323274,0.9549382235399174,0
smt_18691,5.798940519867189,286.65,2.023003844363227,1.063190806091099,0
smt_18692,5.798239684685645,286.65,2.022759352759688,1.063010697012099,0
smt_22142,5.797615021227949,286.65,2.02254143423267,1.062850602952955,0
smt_29410,5.797048178287142,286.65,2.022343686826144,1.062705687254129,0
smt_4821,5.7965074358296915,286.65,2.0221550447687746,1.0625677640400522,0
smt_18693,5.795848981157612,286.65,2.021925337923465,1.0624002396963803,0
smt_5832,5.795242267866284,286.65,2.0217136814464625,1.062246291667365,0
smt_18694,5.794607029134748,286.65,2.0214920736559385,1.0620855306193313,0
smt_5643,5.794047233744237,286.65,2.0212967848401315,1.061944223619595,0
smt_29483,5.793490920576839,286.65,2.0211027108239454,1.0618041321073723,0
smt_6014,5.7929399859786175,286.65,2.020910513161911,1.0616657265036644,0
smt_18695,5.792304498375812,286.65,2.0206888185507808,1.0615064903622946,0
smt_29482,5.79173954246658,286.65,2.0204917294493563,1.0613652982114699,0
smt_6195,5.79114747233681,286.65,2.020285181348966,1.0612177052286966,0
smt_6105,5.79055334565894,286.65,2.0200779158063633,1.06106998693075,0
smt_19334,5.752152742545619,286.65,2.006681577723921,1.0414718133988985,0
smt_19331,5.751532768343938,286.65,2.0064652950789945,1.0412819119788705,0
smt_22269,5.750923914461225,286.65,2.006252891840651,1.0410957376961154,0
sbt_34896,4.294852528232361,216.3,1.9855998743561538,0.9333668002321126,0
sbt_34381,3.207608616858638,163.8,1.9582470188392171,0.9205550301807314,0
smt_29480,5.532056758602222,286.65,1.929899444828963,1.0632041463633632,0
smt_19271,5.530887456068963,286.65,1.9294915248801547,1.0629527356016852,0
smt_5537,5.530423231864664,286.65,1.92932957678865,1.0628533740774027,0
rbt_605808,1.7359616394235589,90.3,1.9224381388965217,0.9032590059930387,0
smt_19274,5.509886259632549,286.65,1.9221651001683409,1.0502791106916944,0
smt_4942,5.5093409300459335,286.65,1.9219748578565965,1.0501605929317241,0
smt_18740,5.508808829501271,286.65,1.9217892305952458,1.0500452924295367,0
smt_5191,5.508279182907516,286.65,1.9216044594130528,1.0499308602175659,0
smt_5198,5.507754536539627,286.65,1.9214214325971142,1.0498178402446972,0
smt_5549,5.507176310024086,286.65,1.9212197139452596,1.0496936617242258,0
smt_19273,5.5065849109304965,286.65,1.9210133999408674,1.049567071776511,0
smt_5414,5.506088452751658,286.65,1.9208402067858565,1.0494611309792143,0
smt_5522,5.505536443354376,286.65,1.920647634172118,1.049343687248937,0
rbt_1607326,1.732785606649441,90.3,1.9189209375962801,0.90221391391185,0
smt_40861,5.479592008800537,286.65,1.9115967238097116,1.0333268520268253,0
smt_40860,5.47923576405755,286.65,1.9114724451622365,1.033249079980705,0
smt_40859,5.4788612675533015,286.65,1.9113417992511084,1.0331674890938096,0
smt_40858,5.478481571425167,286.65,1.9112093394122336,1.0330849390576147,0
smt_40375,3.1304569388970656,163.8,1.9111458723425307,0.951256952502438,0
smt_40857,5.478015557871605,286.65,1.9110467670928328,1.0329838622895853,0
smt_40856,5.477545860945136,286.65,1.9108829098011988,1.032882254355544,0
smt_40374,3.1299051866078034,163.8,1.9108090272330909,0.9509292300979842,0
smt_40855,5.477087460637175,286.65,1.9107229934195624,1.0327833500505175,0
smt_40854,5.47665396013357,286.65,1.9105717635212176,1.0326900547740132,0
smt_40358,3.129356304682504,163.8,1.9104739344826032,0.9506039563682566,0
smt_40853,5.476185930757162,286.65,1.9104084879669154,1.0325895873254343,0
smt_40852,5.475715141536726,286.65,1.9102442496203476,1.032488799288541,0
smt_22899,5.475492804587932,286.65,1.9101666857100759,1.0251851466016404,0
smt_5757,5.475459590575011,286.65,1.9101550987528384,1.025426795532376,0
smt_40357,3.1287784228137903,163.8,1.910121137248956,0.9502623031238304,0
smt_5956,5.4749321719298125,286.65,1.909971104807191,1.0250460463876916,0
smt_6028,5.474875732175833,286.65,1.9099514153761845,1.0252828699428007,0
smt_40356,3.1282917217224346,163.8,1.9098240059355522,0.949975202604633,0
smt_22898,5.474282670443618,286.65,1.909744521347852,1.0251370682365206,0
smt_16985,5.473800332946648,286.65,1.9095762542984993,1.0250187801971193,0
smt_40355,3.127735901815052,163.8,1.9094846775427665,0.9496480550009698,0
smt_6106,5.473244884621103,286.65,1.9093824819888725,1.024882888685114,0
smt_6021,5.472694691555305,286.65,1.9091905430159797,1.0247486279690787,0
smt_40354,3.1271711321851443,163.8,1.9091398853389157,0.9493164365725404,0
smt_6212,5.4721597339917345,286.65,1.9090039190621786,1.0246184153724087,0
smt_6044,5.471603915319054,286.65,1.9088100175541793,1.0244834709682846,0
smt_40353,3.1265998057532847,163.8,1.9087910902034704,0.9489817901579013,0
smt_6029,5.471062010916396,286.65,1.9086209701435188,1.0243522451806903,0
smt_40352,3.1261228587206222,163.8,1.9084999137488536,0.9487030617846823,0
smt_19276,5.470520535182347,286.65,1.908432072277114,1.0242214598483657,0
smt_40351,3.1256708773533712,163.8,1.9082239788482118,0.9484394607876062,0
smt_22896,5.469902316129529,286.65,1.908216401929018,1.0240725510098265,0
smt_6693,5.46948508210206,286.65,1.908070846712737,1.0239723020924325,0
smt_41231,5.469468166931559,286.65,1.9080649457287842,1.0239682425120888,0
...